/*--------------------------------*- C++ -*----------------------------------*\
| =========                 |                                                 |
| \\      /  F ield         | OpenFOAM: The Open Source CFD Toolbox           |
|  \\    /   O peration     | Version:  v2412                                 |
|   \\  /    A nd           | Website:  www.openfoam.com                      |
|    \\/     M anipulation  |                                                 |
\*---------------------------------------------------------------------------*/
FoamFile
{
    version     2.0;
    format      ascii;
    class       dictionary;
    object      fvOptions;
}
// * * * * * * * * * * * * * * * * * * * * * * * * * * * * * * * * * * * * * //

MomentumSource
{
    type            vectorSemiImplicitSource;
    active          true;
    selectionMode   cellSet;
    cellSet         plasmaCellSet;
    fields	    (U);
    volumeMode      specific;

    sources
    {
        U
        {
            explicit table
(
(0.00000000 (0.000000 0 0))
(0.00001562 (11.602982 0 0))
(0.00003125 (44.645480 0 0))
(0.00004688 (94.097073 0 0))
(0.00006250 (152.429205 0 0))
(0.00007812 (210.761336 0 0))
(0.00009375 (260.212929 0 0))
(0.00010938 (293.255427 0 0))
(0.00012500 (304.858409 0 0))
(0.00014063 (293.255427 0 0))
(0.00015625 (260.212929 0 0))
(0.00017188 (210.761336 0 0))
(0.00018750 (152.429205 0 0))
(0.00020312 (94.097073 0 0))
(0.00021875 (44.645480 0 0))
(0.00023438 (11.602982 0 0))
(0.00025000 (0.000000 0 0))
(0.00026563 (11.602982 0 0))
(0.00028125 (44.645480 0 0))
(0.00029688 (94.097073 0 0))
(0.00031250 (152.429205 0 0))
(0.00032812 (210.761336 0 0))
(0.00034375 (260.212929 0 0))
(0.00035938 (293.255427 0 0))
(0.00037500 (304.858409 0 0))
(0.00039062 (293.255427 0 0))
(0.00040625 (260.212929 0 0))
(0.00042188 (210.761336 0 0))
(0.00043750 (152.429205 0 0))
(0.00045312 (94.097073 0 0))
(0.00046875 (44.645480 0 0))
(0.00048438 (11.602982 0 0))
(0.00050000 (0.000000 0 0))
(0.00051562 (11.602982 0 0))
(0.00053125 (44.645480 0 0))
(0.00054688 (94.097073 0 0))
(0.00056250 (152.429205 0 0))
(0.00057812 (210.761336 0 0))
(0.00059375 (260.212929 0 0))
(0.00060938 (293.255427 0 0))
(0.00062500 (304.858409 0 0))
(0.00064062 (293.255427 0 0))
(0.00065625 (260.212929 0 0))
(0.00067188 (210.761336 0 0))
(0.00068750 (152.429205 0 0))
(0.00070312 (94.097073 0 0))
(0.00071875 (44.645480 0 0))
(0.00073438 (11.602982 0 0))
(0.00075000 (0.000000 0 0))
(0.00076562 (11.602982 0 0))
(0.00078125 (44.645480 0 0))
(0.00079688 (94.097073 0 0))
(0.00081250 (152.429205 0 0))
(0.00082812 (210.761336 0 0))
(0.00084375 (260.212929 0 0))
(0.00085938 (293.255427 0 0))
(0.00087500 (304.858409 0 0))
(0.00089062 (293.255427 0 0))
(0.00090625 (260.212929 0 0))
(0.00092188 (210.761336 0 0))
(0.00093750 (152.429205 0 0))
(0.00095312 (94.097073 0 0))
(0.00096875 (44.645480 0 0))
(0.00098438 (11.602982 0 0))
(0.00100000 (0.000000 0 0))
(0.00101562 (11.602982 0 0))
(0.00103125 (44.645480 0 0))
(0.00104688 (94.097073 0 0))
(0.00106250 (152.429205 0 0))
(0.00107813 (210.761336 0 0))
(0.00109375 (260.212929 0 0))
(0.00110938 (293.255427 0 0))
(0.00112500 (304.858409 0 0))
(0.00114062 (293.255427 0 0))
(0.00115625 (260.212929 0 0))
(0.00117188 (210.761336 0 0))
(0.00118750 (152.429205 0 0))
(0.00120312 (94.097073 0 0))
(0.00121875 (44.645480 0 0))
(0.00123438 (11.602982 0 0))
(0.00125000 (0.000000 0 0))
(0.00126562 (11.602982 0 0))
(0.00128125 (44.645480 0 0))
(0.00129688 (94.097073 0 0))
(0.00131250 (152.429205 0 0))
(0.00132812 (210.761336 0 0))
(0.00134375 (260.212929 0 0))
(0.00135938 (293.255427 0 0))
(0.00137500 (304.858409 0 0))
(0.00139062 (293.255427 0 0))
(0.00140625 (260.212929 0 0))
(0.00142188 (210.761336 0 0))
(0.00143750 (152.429205 0 0))
(0.00145312 (94.097073 0 0))
(0.00146875 (44.645480 0 0))
(0.00148438 (11.602982 0 0))
(0.00150000 (0.000000 0 0))
(0.00151562 (11.602982 0 0))
(0.00153125 (44.645480 0 0))
(0.00154688 (94.097073 0 0))
(0.00156250 (152.429205 0 0))
(0.00157812 (210.761336 0 0))
(0.00159375 (260.212929 0 0))
(0.00160938 (293.255427 0 0))
(0.00162500 (304.858409 0 0))
(0.00164062 (293.255427 0 0))
(0.00165625 (260.212929 0 0))
(0.00167188 (210.761336 0 0))
(0.00168750 (152.429205 0 0))
(0.00170312 (94.097073 0 0))
(0.00171875 (44.645480 0 0))
(0.00173438 (11.602982 0 0))
(0.00175000 (0.000000 0 0))
(0.00176562 (11.602982 0 0))
(0.00178125 (44.645480 0 0))
(0.00179688 (94.097073 0 0))
(0.00181250 (152.429205 0 0))
(0.00182812 (210.761336 0 0))
(0.00184375 (260.212929 0 0))
(0.00185938 (293.255427 0 0))
(0.00187500 (304.858409 0 0))
(0.00189062 (293.255427 0 0))
(0.00190625 (260.212929 0 0))
(0.00192188 (210.761336 0 0))
(0.00193750 (152.429205 0 0))
(0.00195312 (94.097073 0 0))
(0.00196875 (44.645480 0 0))
(0.00198438 (11.602982 0 0))
(0.00200000 (0.000000 0 0))
(0.00201562 (11.602982 0 0))
(0.00203125 (44.645480 0 0))
(0.00204688 (94.097073 0 0))
(0.00206250 (152.429205 0 0))
(0.00207812 (210.761336 0 0))
(0.00209375 (260.212929 0 0))
(0.00210938 (293.255427 0 0))
(0.00212500 (304.858409 0 0))
(0.00214063 (293.255427 0 0))
(0.00215625 (260.212929 0 0))
(0.00217188 (210.761336 0 0))
(0.00218750 (152.429205 0 0))
(0.00220313 (94.097073 0 0))
(0.00221875 (44.645480 0 0))
(0.00223438 (11.602982 0 0))
(0.00225000 (0.000000 0 0))
(0.00226562 (11.602982 0 0))
(0.00228125 (44.645480 0 0))
(0.00229688 (94.097073 0 0))
(0.00231250 (152.429205 0 0))
(0.00232812 (210.761336 0 0))
(0.00234375 (260.212929 0 0))
(0.00235938 (293.255427 0 0))
(0.00237500 (304.858409 0 0))
(0.00239062 (293.255427 0 0))
(0.00240625 (260.212929 0 0))
(0.00242188 (210.761336 0 0))
(0.00243750 (152.429205 0 0))
(0.00245312 (94.097073 0 0))
(0.00246875 (44.645480 0 0))
(0.00248438 (11.602982 0 0))
(0.00250000 (0.000000 0 0))
(0.00251562 (11.602982 0 0))
(0.00253125 (44.645480 0 0))
(0.00254688 (94.097073 0 0))
(0.00256250 (152.429205 0 0))
(0.00257812 (210.761336 0 0))
(0.00259375 (260.212929 0 0))
(0.00260938 (293.255427 0 0))
(0.00262500 (304.858409 0 0))
(0.00264062 (293.255427 0 0))
(0.00265625 (260.212929 0 0))
(0.00267188 (210.761336 0 0))
(0.00268750 (152.429205 0 0))
(0.00270312 (94.097073 0 0))
(0.00271875 (44.645480 0 0))
(0.00273438 (11.602982 0 0))
(0.00275000 (0.000000 0 0))
(0.00276562 (11.602982 0 0))
(0.00278125 (44.645480 0 0))
(0.00279688 (94.097073 0 0))
(0.00281250 (152.429205 0 0))
(0.00282812 (210.761336 0 0))
(0.00284375 (260.212929 0 0))
(0.00285938 (293.255427 0 0))
(0.00287500 (304.858409 0 0))
(0.00289062 (293.255427 0 0))
(0.00290625 (260.212929 0 0))
(0.00292188 (210.761336 0 0))
(0.00293750 (152.429205 0 0))
(0.00295312 (94.097073 0 0))
(0.00296875 (44.645480 0 0))
(0.00298438 (11.602982 0 0))
(0.00300000 (0.000000 0 0))
(0.00301562 (11.602982 0 0))
(0.00303125 (44.645480 0 0))
(0.00304688 (94.097073 0 0))
(0.00306250 (152.429205 0 0))
(0.00307812 (210.761336 0 0))
(0.00309375 (260.212929 0 0))
(0.00310938 (293.255427 0 0))
(0.00312500 (304.858409 0 0))
(0.00314062 (293.255427 0 0))
(0.00315625 (260.212929 0 0))
(0.00317188 (210.761336 0 0))
(0.00318750 (152.429205 0 0))
(0.00320312 (94.097073 0 0))
(0.00321875 (44.645480 0 0))
(0.00323438 (11.602982 0 0))
(0.00325000 (0.000000 0 0))
(0.00326562 (11.602982 0 0))
(0.00328125 (44.645480 0 0))
(0.00329688 (94.097073 0 0))
(0.00331250 (152.429205 0 0))
(0.00332812 (210.761336 0 0))
(0.00334375 (260.212929 0 0))
(0.00335938 (293.255427 0 0))
(0.00337500 (304.858409 0 0))
(0.00339062 (293.255427 0 0))
(0.00340625 (260.212929 0 0))
(0.00342188 (210.761336 0 0))
(0.00343750 (152.429205 0 0))
(0.00345312 (94.097073 0 0))
(0.00346875 (44.645480 0 0))
(0.00348438 (11.602982 0 0))
(0.00350000 (0.000000 0 0))
(0.00351562 (11.602982 0 0))
(0.00353125 (44.645480 0 0))
(0.00354688 (94.097073 0 0))
(0.00356250 (152.429205 0 0))
(0.00357812 (210.761336 0 0))
(0.00359375 (260.212929 0 0))
(0.00360938 (293.255427 0 0))
(0.00362500 (304.858409 0 0))
(0.00364062 (293.255427 0 0))
(0.00365625 (260.212929 0 0))
(0.00367188 (210.761336 0 0))
(0.00368750 (152.429205 0 0))
(0.00370312 (94.097073 0 0))
(0.00371875 (44.645480 0 0))
(0.00373438 (11.602982 0 0))
(0.00375000 (0.000000 0 0))
(0.00376562 (11.602982 0 0))
(0.00378125 (44.645480 0 0))
(0.00379688 (94.097073 0 0))
(0.00381250 (152.429205 0 0))
(0.00382812 (210.761336 0 0))
(0.00384375 (260.212929 0 0))
(0.00385938 (293.255427 0 0))
(0.00387500 (304.858409 0 0))
(0.00389062 (293.255427 0 0))
(0.00390625 (260.212929 0 0))
(0.00392188 (210.761336 0 0))
(0.00393750 (152.429205 0 0))
(0.00395312 (94.097073 0 0))
(0.00396875 (44.645480 0 0))
(0.00398438 (11.602982 0 0))
(0.00400000 (0.000000 0 0))
(0.00401562 (11.602982 0 0))
(0.00403125 (44.645480 0 0))
(0.00404688 (94.097073 0 0))
(0.00406250 (152.429205 0 0))
(0.00407812 (210.761336 0 0))
(0.00409375 (260.212929 0 0))
(0.00410938 (293.255427 0 0))
(0.00412500 (304.858409 0 0))
(0.00414062 (293.255427 0 0))
(0.00415625 (260.212929 0 0))
(0.00417188 (210.761336 0 0))
(0.00418750 (152.429205 0 0))
(0.00420312 (94.097073 0 0))
(0.00421875 (44.645480 0 0))
(0.00423438 (11.602982 0 0))
(0.00425000 (0.000000 0 0))
(0.00426563 (11.602982 0 0))
(0.00428125 (44.645480 0 0))
(0.00429688 (94.097073 0 0))
(0.00431250 (152.429205 0 0))
(0.00432813 (210.761336 0 0))
(0.00434375 (260.212929 0 0))
(0.00435938 (293.255427 0 0))
(0.00437500 (304.858409 0 0))
(0.00439063 (293.255427 0 0))
(0.00440625 (260.212929 0 0))
(0.00442188 (210.761336 0 0))
(0.00443750 (152.429205 0 0))
(0.00445313 (94.097073 0 0))
(0.00446875 (44.645480 0 0))
(0.00448438 (11.602982 0 0))
(0.00450000 (0.000000 0 0))
(0.00451562 (11.602982 0 0))
(0.00453125 (44.645480 0 0))
(0.00454687 (94.097073 0 0))
(0.00456250 (152.429205 0 0))
(0.00457812 (210.761336 0 0))
(0.00459375 (260.212929 0 0))
(0.00460938 (293.255427 0 0))
(0.00462500 (304.858409 0 0))
(0.00464062 (293.255427 0 0))
(0.00465625 (260.212929 0 0))
(0.00467188 (210.761336 0 0))
(0.00468750 (152.429205 0 0))
(0.00470312 (94.097073 0 0))
(0.00471875 (44.645480 0 0))
(0.00473438 (11.602982 0 0))
(0.00475000 (0.000000 0 0))
(0.00476562 (11.602982 0 0))
(0.00478125 (44.645480 0 0))
(0.00479688 (94.097073 0 0))
(0.00481250 (152.429205 0 0))
(0.00482812 (210.761336 0 0))
(0.00484375 (260.212929 0 0))
(0.00485938 (293.255427 0 0))
(0.00487500 (304.858409 0 0))
(0.00489062 (293.255427 0 0))
(0.00490625 (260.212929 0 0))
(0.00492188 (210.761336 0 0))
(0.00493750 (152.429205 0 0))
(0.00495312 (94.097073 0 0))
(0.00496875 (44.645480 0 0))
(0.00498438 (11.602982 0 0))
(0.00500000 (0.000000 0 0))
(0.00501562 (11.602982 0 0))
(0.00503125 (44.645480 0 0))
(0.00504688 (94.097073 0 0))
(0.00506250 (152.429205 0 0))
(0.00507812 (210.761336 0 0))
(0.00509375 (260.212929 0 0))
(0.00510938 (293.255427 0 0))
(0.00512500 (304.858409 0 0))
(0.00514062 (293.255427 0 0))
(0.00515625 (260.212929 0 0))
(0.00517188 (210.761336 0 0))
(0.00518750 (152.429205 0 0))
(0.00520312 (94.097073 0 0))
(0.00521875 (44.645480 0 0))
(0.00523438 (11.602982 0 0))
(0.00525000 (0.000000 0 0))
(0.00526562 (11.602982 0 0))
(0.00528125 (44.645480 0 0))
(0.00529688 (94.097073 0 0))
(0.00531250 (152.429205 0 0))
(0.00532812 (210.761336 0 0))
(0.00534375 (260.212929 0 0))
(0.00535938 (293.255427 0 0))
(0.00537500 (304.858409 0 0))
(0.00539062 (293.255427 0 0))
(0.00540625 (260.212929 0 0))
(0.00542188 (210.761336 0 0))
(0.00543750 (152.429205 0 0))
(0.00545312 (94.097073 0 0))
(0.00546875 (44.645480 0 0))
(0.00548438 (11.602982 0 0))
(0.00550000 (0.000000 0 0))
(0.00551562 (11.602982 0 0))
(0.00553125 (44.645480 0 0))
(0.00554688 (94.097073 0 0))
(0.00556250 (152.429205 0 0))
(0.00557812 (210.761336 0 0))
(0.00559375 (260.212929 0 0))
(0.00560938 (293.255427 0 0))
(0.00562500 (304.858409 0 0))
(0.00564062 (293.255427 0 0))
(0.00565625 (260.212929 0 0))
(0.00567188 (210.761336 0 0))
(0.00568750 (152.429205 0 0))
(0.00570312 (94.097073 0 0))
(0.00571875 (44.645480 0 0))
(0.00573438 (11.602982 0 0))
(0.00575000 (0.000000 0 0))
(0.00576562 (11.602982 0 0))
(0.00578125 (44.645480 0 0))
(0.00579688 (94.097073 0 0))
(0.00581250 (152.429205 0 0))
(0.00582812 (210.761336 0 0))
(0.00584375 (260.212929 0 0))
(0.00585938 (293.255427 0 0))
(0.00587500 (304.858409 0 0))
(0.00589062 (293.255427 0 0))
(0.00590625 (260.212929 0 0))
(0.00592188 (210.761336 0 0))
(0.00593750 (152.429205 0 0))
(0.00595312 (94.097073 0 0))
(0.00596875 (44.645480 0 0))
(0.00598438 (11.602982 0 0))
(0.00600000 (0.000000 0 0))
(0.00601562 (11.602982 0 0))
(0.00603125 (44.645480 0 0))
(0.00604688 (94.097073 0 0))
(0.00606250 (152.429205 0 0))
(0.00607812 (210.761336 0 0))
(0.00609375 (260.212929 0 0))
(0.00610938 (293.255427 0 0))
(0.00612500 (304.858409 0 0))
(0.00614062 (293.255427 0 0))
(0.00615625 (260.212929 0 0))
(0.00617188 (210.761336 0 0))
(0.00618750 (152.429205 0 0))
(0.00620312 (94.097073 0 0))
(0.00621875 (44.645480 0 0))
(0.00623438 (11.602982 0 0))
(0.00625000 (0.000000 0 0))
(0.00626562 (11.602982 0 0))
(0.00628125 (44.645480 0 0))
(0.00629688 (94.097073 0 0))
(0.00631250 (152.429205 0 0))
(0.00632812 (210.761336 0 0))
(0.00634375 (260.212929 0 0))
(0.00635938 (293.255427 0 0))
(0.00637500 (304.858409 0 0))
(0.00639062 (293.255427 0 0))
(0.00640625 (260.212929 0 0))
(0.00642188 (210.761336 0 0))
(0.00643750 (152.429205 0 0))
(0.00645312 (94.097073 0 0))
(0.00646875 (44.645480 0 0))
(0.00648438 (11.602982 0 0))
(0.00650000 (0.000000 0 0))
(0.00651562 (11.602982 0 0))
(0.00653125 (44.645480 0 0))
(0.00654688 (94.097073 0 0))
(0.00656250 (152.429205 0 0))
(0.00657812 (210.761336 0 0))
(0.00659375 (260.212929 0 0))
(0.00660938 (293.255427 0 0))
(0.00662500 (304.858409 0 0))
(0.00664062 (293.255427 0 0))
(0.00665625 (260.212929 0 0))
(0.00667188 (210.761336 0 0))
(0.00668750 (152.429205 0 0))
(0.00670312 (94.097073 0 0))
(0.00671875 (44.645480 0 0))
(0.00673438 (11.602982 0 0))
(0.00675000 (0.000000 0 0))
(0.00676562 (11.602982 0 0))
(0.00678125 (44.645480 0 0))
(0.00679688 (94.097073 0 0))
(0.00681250 (152.429205 0 0))
(0.00682812 (210.761336 0 0))
(0.00684375 (260.212929 0 0))
(0.00685938 (293.255427 0 0))
(0.00687500 (304.858409 0 0))
(0.00689062 (293.255427 0 0))
(0.00690625 (260.212929 0 0))
(0.00692188 (210.761336 0 0))
(0.00693750 (152.429205 0 0))
(0.00695312 (94.097073 0 0))
(0.00696875 (44.645480 0 0))
(0.00698438 (11.602982 0 0))
(0.00700000 (0.000000 0 0))
(0.00701562 (11.602982 0 0))
(0.00703125 (44.645480 0 0))
(0.00704688 (94.097073 0 0))
(0.00706250 (152.429205 0 0))
(0.00707812 (210.761336 0 0))
(0.00709375 (260.212929 0 0))
(0.00710938 (293.255427 0 0))
(0.00712500 (304.858409 0 0))
(0.00714062 (293.255427 0 0))
(0.00715625 (260.212929 0 0))
(0.00717188 (210.761336 0 0))
(0.00718750 (152.429205 0 0))
(0.00720312 (94.097073 0 0))
(0.00721875 (44.645480 0 0))
(0.00723438 (11.602982 0 0))
(0.00725000 (0.000000 0 0))
(0.00726562 (11.602982 0 0))
(0.00728125 (44.645480 0 0))
(0.00729688 (94.097073 0 0))
(0.00731250 (152.429205 0 0))
(0.00732812 (210.761336 0 0))
(0.00734375 (260.212929 0 0))
(0.00735938 (293.255427 0 0))
(0.00737500 (304.858409 0 0))
(0.00739062 (293.255427 0 0))
(0.00740625 (260.212929 0 0))
(0.00742188 (210.761336 0 0))
(0.00743750 (152.429205 0 0))
(0.00745312 (94.097073 0 0))
(0.00746875 (44.645480 0 0))
(0.00748438 (11.602982 0 0))
(0.00750000 (0.000000 0 0))
(0.00751562 (11.602982 0 0))
(0.00753125 (44.645480 0 0))
(0.00754688 (94.097073 0 0))
(0.00756250 (152.429205 0 0))
(0.00757812 (210.761336 0 0))
(0.00759375 (260.212929 0 0))
(0.00760938 (293.255427 0 0))
(0.00762500 (304.858409 0 0))
(0.00764062 (293.255427 0 0))
(0.00765625 (260.212929 0 0))
(0.00767188 (210.761336 0 0))
(0.00768750 (152.429205 0 0))
(0.00770312 (94.097073 0 0))
(0.00771875 (44.645480 0 0))
(0.00773438 (11.602982 0 0))
(0.00775000 (0.000000 0 0))
(0.00776562 (11.602982 0 0))
(0.00778125 (44.645480 0 0))
(0.00779688 (94.097073 0 0))
(0.00781250 (152.429205 0 0))
(0.00782812 (210.761336 0 0))
(0.00784375 (260.212929 0 0))
(0.00785938 (293.255427 0 0))
(0.00787500 (304.858409 0 0))
(0.00789062 (293.255427 0 0))
(0.00790625 (260.212929 0 0))
(0.00792188 (210.761336 0 0))
(0.00793750 (152.429205 0 0))
(0.00795312 (94.097073 0 0))
(0.00796875 (44.645480 0 0))
(0.00798438 (11.602982 0 0))
(0.00800000 (0.000000 0 0))
(0.00801562 (11.602982 0 0))
(0.00803125 (44.645480 0 0))
(0.00804688 (94.097073 0 0))
(0.00806250 (152.429205 0 0))
(0.00807812 (210.761336 0 0))
(0.00809375 (260.212929 0 0))
(0.00810938 (293.255427 0 0))
(0.00812500 (304.858409 0 0))
(0.00814062 (293.255427 0 0))
(0.00815625 (260.212929 0 0))
(0.00817188 (210.761336 0 0))
(0.00818750 (152.429205 0 0))
(0.00820312 (94.097073 0 0))
(0.00821875 (44.645480 0 0))
(0.00823438 (11.602982 0 0))
(0.00825000 (0.000000 0 0))
(0.00826562 (11.602982 0 0))
(0.00828125 (44.645480 0 0))
(0.00829688 (94.097073 0 0))
(0.00831250 (152.429205 0 0))
(0.00832812 (210.761336 0 0))
(0.00834375 (260.212929 0 0))
(0.00835938 (293.255427 0 0))
(0.00837500 (304.858409 0 0))
(0.00839062 (293.255427 0 0))
(0.00840625 (260.212929 0 0))
(0.00842188 (210.761336 0 0))
(0.00843750 (152.429205 0 0))
(0.00845312 (94.097073 0 0))
(0.00846875 (44.645480 0 0))
(0.00848438 (11.602982 0 0))
(0.00850000 (0.000000 0 0))
(0.00851563 (11.602982 0 0))
(0.00853125 (44.645480 0 0))
(0.00854688 (94.097073 0 0))
(0.00856250 (152.429205 0 0))
(0.00857813 (210.761336 0 0))
(0.00859375 (260.212929 0 0))
(0.00860938 (293.255427 0 0))
(0.00862500 (304.858409 0 0))
(0.00864063 (293.255427 0 0))
(0.00865625 (260.212929 0 0))
(0.00867188 (210.761336 0 0))
(0.00868750 (152.429205 0 0))
(0.00870313 (94.097073 0 0))
(0.00871875 (44.645480 0 0))
(0.00873438 (11.602982 0 0))
(0.00875000 (0.000000 0 0))
(0.00876563 (11.602982 0 0))
(0.00878125 (44.645480 0 0))
(0.00879688 (94.097073 0 0))
(0.00881250 (152.429205 0 0))
(0.00882813 (210.761336 0 0))
(0.00884375 (260.212929 0 0))
(0.00885938 (293.255427 0 0))
(0.00887500 (304.858409 0 0))
(0.00889063 (293.255427 0 0))
(0.00890625 (260.212929 0 0))
(0.00892188 (210.761336 0 0))
(0.00893750 (152.429205 0 0))
(0.00895313 (94.097073 0 0))
(0.00896875 (44.645480 0 0))
(0.00898438 (11.602982 0 0))
(0.00900000 (0.000000 0 0))
(0.00901562 (11.602982 0 0))
(0.00903125 (44.645480 0 0))
(0.00904687 (94.097073 0 0))
(0.00906250 (152.429205 0 0))
(0.00907812 (210.761336 0 0))
(0.00909375 (260.212929 0 0))
(0.00910937 (293.255427 0 0))
(0.00912500 (304.858409 0 0))
(0.00914062 (293.255427 0 0))
(0.00915625 (260.212929 0 0))
(0.00917188 (210.761336 0 0))
(0.00918750 (152.429205 0 0))
(0.00920312 (94.097073 0 0))
(0.00921875 (44.645480 0 0))
(0.00923438 (11.602982 0 0))
(0.00925000 (0.000000 0 0))
(0.00926562 (11.602982 0 0))
(0.00928125 (44.645480 0 0))
(0.00929688 (94.097073 0 0))
(0.00931250 (152.429205 0 0))
(0.00932812 (210.761336 0 0))
(0.00934375 (260.212929 0 0))
(0.00935938 (293.255427 0 0))
(0.00937500 (304.858409 0 0))
(0.00939062 (293.255427 0 0))
(0.00940625 (260.212929 0 0))
(0.00942188 (210.761336 0 0))
(0.00943750 (152.429205 0 0))
(0.00945312 (94.097073 0 0))
(0.00946875 (44.645480 0 0))
(0.00948438 (11.602982 0 0))
(0.00950000 (0.000000 0 0))
(0.00951562 (11.602982 0 0))
(0.00953125 (44.645480 0 0))
(0.00954688 (94.097073 0 0))
(0.00956250 (152.429205 0 0))
(0.00957812 (210.761336 0 0))
(0.00959375 (260.212929 0 0))
(0.00960938 (293.255427 0 0))
(0.00962500 (304.858409 0 0))
(0.00964062 (293.255427 0 0))
(0.00965625 (260.212929 0 0))
(0.00967188 (210.761336 0 0))
(0.00968750 (152.429205 0 0))
(0.00970312 (94.097073 0 0))
(0.00971875 (44.645480 0 0))
(0.00973438 (11.602982 0 0))
(0.00975000 (0.000000 0 0))
(0.00976562 (11.602982 0 0))
(0.00978125 (44.645480 0 0))
(0.00979688 (94.097073 0 0))
(0.00981250 (152.429205 0 0))
(0.00982812 (210.761336 0 0))
(0.00984375 (260.212929 0 0))
(0.00985938 (293.255427 0 0))
(0.00987500 (304.858409 0 0))
(0.00989062 (293.255427 0 0))
(0.00990625 (260.212929 0 0))
(0.00992188 (210.761336 0 0))
(0.00993750 (152.429205 0 0))
(0.00995312 (94.097073 0 0))
(0.00996875 (44.645480 0 0))
(0.00998438 (11.602982 0 0))
(0.01000000 (0.000000 0 0))
(0.01001562 (11.602982 0 0))
(0.01003125 (44.645480 0 0))
(0.01004688 (94.097073 0 0))
(0.01006250 (152.429205 0 0))
(0.01007812 (210.761336 0 0))
(0.01009375 (260.212929 0 0))
(0.01010938 (293.255427 0 0))
(0.01012500 (304.858409 0 0))
(0.01014062 (293.255427 0 0))
(0.01015625 (260.212929 0 0))
(0.01017188 (210.761336 0 0))
(0.01018750 (152.429205 0 0))
(0.01020312 (94.097073 0 0))
(0.01021875 (44.645480 0 0))
(0.01023438 (11.602982 0 0))
(0.01025000 (0.000000 0 0))
(0.01026562 (11.602982 0 0))
(0.01028125 (44.645480 0 0))
(0.01029688 (94.097073 0 0))
(0.01031250 (152.429205 0 0))
(0.01032812 (210.761336 0 0))
(0.01034375 (260.212929 0 0))
(0.01035938 (293.255427 0 0))
(0.01037500 (304.858409 0 0))
(0.01039062 (293.255427 0 0))
(0.01040625 (260.212929 0 0))
(0.01042188 (210.761336 0 0))
(0.01043750 (152.429205 0 0))
(0.01045313 (94.097073 0 0))
(0.01046875 (44.645480 0 0))
(0.01048438 (11.602982 0 0))
(0.01050000 (0.000000 0 0))
(0.01051562 (11.602982 0 0))
(0.01053125 (44.645480 0 0))
(0.01054688 (94.097073 0 0))
(0.01056250 (152.429205 0 0))
(0.01057812 (210.761336 0 0))
(0.01059375 (260.212929 0 0))
(0.01060938 (293.255427 0 0))
(0.01062500 (304.858409 0 0))
(0.01064062 (293.255427 0 0))
(0.01065625 (260.212929 0 0))
(0.01067188 (210.761336 0 0))
(0.01068750 (152.429205 0 0))
(0.01070312 (94.097073 0 0))
(0.01071875 (44.645480 0 0))
(0.01073438 (11.602982 0 0))
(0.01075000 (0.000000 0 0))
(0.01076562 (11.602982 0 0))
(0.01078125 (44.645480 0 0))
(0.01079688 (94.097073 0 0))
(0.01081250 (152.429205 0 0))
(0.01082812 (210.761336 0 0))
(0.01084375 (260.212929 0 0))
(0.01085938 (293.255427 0 0))
(0.01087500 (304.858409 0 0))
(0.01089062 (293.255427 0 0))
(0.01090625 (260.212929 0 0))
(0.01092188 (210.761336 0 0))
(0.01093750 (152.429205 0 0))
(0.01095312 (94.097073 0 0))
(0.01096875 (44.645480 0 0))
(0.01098438 (11.602982 0 0))
(0.01100000 (0.000000 0 0))
(0.01101562 (11.602982 0 0))
(0.01103125 (44.645480 0 0))
(0.01104688 (94.097073 0 0))
(0.01106250 (152.429205 0 0))
(0.01107812 (210.761336 0 0))
(0.01109375 (260.212929 0 0))
(0.01110938 (293.255427 0 0))
(0.01112500 (304.858409 0 0))
(0.01114062 (293.255427 0 0))
(0.01115625 (260.212929 0 0))
(0.01117188 (210.761336 0 0))
(0.01118750 (152.429205 0 0))
(0.01120312 (94.097073 0 0))
(0.01121875 (44.645480 0 0))
(0.01123438 (11.602982 0 0))
(0.01125000 (0.000000 0 0))
(0.01126562 (11.602982 0 0))
(0.01128125 (44.645480 0 0))
(0.01129688 (94.097073 0 0))
(0.01131250 (152.429205 0 0))
(0.01132812 (210.761336 0 0))
(0.01134375 (260.212929 0 0))
(0.01135938 (293.255427 0 0))
(0.01137500 (304.858409 0 0))
(0.01139062 (293.255427 0 0))
(0.01140625 (260.212929 0 0))
(0.01142188 (210.761336 0 0))
(0.01143750 (152.429205 0 0))
(0.01145312 (94.097073 0 0))
(0.01146875 (44.645480 0 0))
(0.01148438 (11.602982 0 0))
(0.01150000 (0.000000 0 0))
(0.01151562 (11.602982 0 0))
(0.01153125 (44.645480 0 0))
(0.01154688 (94.097073 0 0))
(0.01156250 (152.429205 0 0))
(0.01157812 (210.761336 0 0))
(0.01159375 (260.212929 0 0))
(0.01160938 (293.255427 0 0))
(0.01162500 (304.858409 0 0))
(0.01164062 (293.255427 0 0))
(0.01165625 (260.212929 0 0))
(0.01167188 (210.761336 0 0))
(0.01168750 (152.429205 0 0))
(0.01170312 (94.097073 0 0))
(0.01171875 (44.645480 0 0))
(0.01173438 (11.602982 0 0))
(0.01175000 (0.000000 0 0))
(0.01176562 (11.602982 0 0))
(0.01178125 (44.645480 0 0))
(0.01179688 (94.097073 0 0))
(0.01181250 (152.429205 0 0))
(0.01182812 (210.761336 0 0))
(0.01184375 (260.212929 0 0))
(0.01185938 (293.255427 0 0))
(0.01187500 (304.858409 0 0))
(0.01189062 (293.255427 0 0))
(0.01190625 (260.212929 0 0))
(0.01192188 (210.761336 0 0))
(0.01193750 (152.429205 0 0))
(0.01195312 (94.097073 0 0))
(0.01196875 (44.645480 0 0))
(0.01198438 (11.602982 0 0))
(0.01200000 (0.000000 0 0))
(0.01201562 (11.602982 0 0))
(0.01203125 (44.645480 0 0))
(0.01204688 (94.097073 0 0))
(0.01206250 (152.429205 0 0))
(0.01207812 (210.761336 0 0))
(0.01209375 (260.212929 0 0))
(0.01210938 (293.255427 0 0))
(0.01212500 (304.858409 0 0))
(0.01214062 (293.255427 0 0))
(0.01215625 (260.212929 0 0))
(0.01217188 (210.761336 0 0))
(0.01218750 (152.429205 0 0))
(0.01220312 (94.097073 0 0))
(0.01221875 (44.645480 0 0))
(0.01223438 (11.602982 0 0))
(0.01225000 (0.000000 0 0))
(0.01226562 (11.602982 0 0))
(0.01228125 (44.645480 0 0))
(0.01229688 (94.097073 0 0))
(0.01231250 (152.429205 0 0))
(0.01232812 (210.761336 0 0))
(0.01234375 (260.212929 0 0))
(0.01235938 (293.255427 0 0))
(0.01237500 (304.858409 0 0))
(0.01239062 (293.255427 0 0))
(0.01240625 (260.212929 0 0))
(0.01242188 (210.761336 0 0))
(0.01243750 (152.429205 0 0))
(0.01245312 (94.097073 0 0))
(0.01246875 (44.645480 0 0))
(0.01248438 (11.602982 0 0))
(0.01250000 (0.000000 0 0))
(0.01251562 (11.602982 0 0))
(0.01253125 (44.645480 0 0))
(0.01254688 (94.097073 0 0))
(0.01256250 (152.429205 0 0))
(0.01257812 (210.761336 0 0))
(0.01259375 (260.212929 0 0))
(0.01260938 (293.255427 0 0))
(0.01262500 (304.858409 0 0))
(0.01264062 (293.255427 0 0))
(0.01265625 (260.212929 0 0))
(0.01267188 (210.761336 0 0))
(0.01268750 (152.429205 0 0))
(0.01270312 (94.097073 0 0))
(0.01271875 (44.645480 0 0))
(0.01273438 (11.602982 0 0))
(0.01275000 (0.000000 0 0))
(0.01276562 (11.602982 0 0))
(0.01278125 (44.645480 0 0))
(0.01279688 (94.097073 0 0))
(0.01281250 (152.429205 0 0))
(0.01282812 (210.761336 0 0))
(0.01284375 (260.212929 0 0))
(0.01285938 (293.255427 0 0))
(0.01287500 (304.858409 0 0))
(0.01289062 (293.255427 0 0))
(0.01290625 (260.212929 0 0))
(0.01292188 (210.761336 0 0))
(0.01293750 (152.429205 0 0))
(0.01295312 (94.097073 0 0))
(0.01296875 (44.645480 0 0))
(0.01298438 (11.602982 0 0))
(0.01300000 (0.000000 0 0))
(0.01301562 (11.602982 0 0))
(0.01303125 (44.645480 0 0))
(0.01304688 (94.097073 0 0))
(0.01306250 (152.429205 0 0))
(0.01307812 (210.761336 0 0))
(0.01309375 (260.212929 0 0))
(0.01310938 (293.255427 0 0))
(0.01312500 (304.858409 0 0))
(0.01314062 (293.255427 0 0))
(0.01315625 (260.212929 0 0))
(0.01317188 (210.761336 0 0))
(0.01318750 (152.429205 0 0))
(0.01320312 (94.097073 0 0))
(0.01321875 (44.645480 0 0))
(0.01323438 (11.602982 0 0))
(0.01325000 (0.000000 0 0))
(0.01326562 (11.602982 0 0))
(0.01328125 (44.645480 0 0))
(0.01329688 (94.097073 0 0))
(0.01331250 (152.429205 0 0))
(0.01332812 (210.761336 0 0))
(0.01334375 (260.212929 0 0))
(0.01335938 (293.255427 0 0))
(0.01337500 (304.858409 0 0))
(0.01339062 (293.255427 0 0))
(0.01340625 (260.212929 0 0))
(0.01342188 (210.761336 0 0))
(0.01343750 (152.429205 0 0))
(0.01345312 (94.097073 0 0))
(0.01346875 (44.645480 0 0))
(0.01348438 (11.602982 0 0))
(0.01350000 (0.000000 0 0))
(0.01351562 (11.602982 0 0))
(0.01353125 (44.645480 0 0))
(0.01354688 (94.097073 0 0))
(0.01356250 (152.429205 0 0))
(0.01357812 (210.761336 0 0))
(0.01359375 (260.212929 0 0))
(0.01360938 (293.255427 0 0))
(0.01362500 (304.858409 0 0))
(0.01364062 (293.255427 0 0))
(0.01365625 (260.212929 0 0))
(0.01367188 (210.761336 0 0))
(0.01368750 (152.429205 0 0))
(0.01370312 (94.097073 0 0))
(0.01371875 (44.645480 0 0))
(0.01373438 (11.602982 0 0))
(0.01375000 (0.000000 0 0))
(0.01376562 (11.602982 0 0))
(0.01378125 (44.645480 0 0))
(0.01379688 (94.097073 0 0))
(0.01381250 (152.429205 0 0))
(0.01382812 (210.761336 0 0))
(0.01384375 (260.212929 0 0))
(0.01385938 (293.255427 0 0))
(0.01387500 (304.858409 0 0))
(0.01389062 (293.255427 0 0))
(0.01390625 (260.212929 0 0))
(0.01392188 (210.761336 0 0))
(0.01393750 (152.429205 0 0))
(0.01395312 (94.097073 0 0))
(0.01396875 (44.645480 0 0))
(0.01398438 (11.602982 0 0))
(0.01400000 (0.000000 0 0))
(0.01401562 (11.602982 0 0))
(0.01403125 (44.645480 0 0))
(0.01404688 (94.097073 0 0))
(0.01406250 (152.429205 0 0))
(0.01407812 (210.761336 0 0))
(0.01409375 (260.212929 0 0))
(0.01410938 (293.255427 0 0))
(0.01412500 (304.858409 0 0))
(0.01414062 (293.255427 0 0))
(0.01415625 (260.212929 0 0))
(0.01417188 (210.761336 0 0))
(0.01418750 (152.429205 0 0))
(0.01420312 (94.097073 0 0))
(0.01421875 (44.645480 0 0))
(0.01423438 (11.602982 0 0))
(0.01425000 (0.000000 0 0))
(0.01426562 (11.602982 0 0))
(0.01428125 (44.645480 0 0))
(0.01429688 (94.097073 0 0))
(0.01431250 (152.429205 0 0))
(0.01432812 (210.761336 0 0))
(0.01434375 (260.212929 0 0))
(0.01435938 (293.255427 0 0))
(0.01437500 (304.858409 0 0))
(0.01439062 (293.255427 0 0))
(0.01440625 (260.212929 0 0))
(0.01442188 (210.761336 0 0))
(0.01443750 (152.429205 0 0))
(0.01445312 (94.097073 0 0))
(0.01446875 (44.645480 0 0))
(0.01448438 (11.602982 0 0))
(0.01450000 (0.000000 0 0))
(0.01451562 (11.602982 0 0))
(0.01453125 (44.645480 0 0))
(0.01454688 (94.097073 0 0))
(0.01456250 (152.429205 0 0))
(0.01457812 (210.761336 0 0))
(0.01459375 (260.212929 0 0))
(0.01460938 (293.255427 0 0))
(0.01462500 (304.858409 0 0))
(0.01464062 (293.255427 0 0))
(0.01465625 (260.212929 0 0))
(0.01467188 (210.761336 0 0))
(0.01468750 (152.429205 0 0))
(0.01470312 (94.097073 0 0))
(0.01471875 (44.645480 0 0))
(0.01473438 (11.602982 0 0))
(0.01475000 (0.000000 0 0))
(0.01476562 (11.602982 0 0))
(0.01478125 (44.645480 0 0))
(0.01479688 (94.097073 0 0))
(0.01481250 (152.429205 0 0))
(0.01482812 (210.761336 0 0))
(0.01484375 (260.212929 0 0))
(0.01485938 (293.255427 0 0))
(0.01487500 (304.858409 0 0))
(0.01489062 (293.255427 0 0))
(0.01490625 (260.212929 0 0))
(0.01492188 (210.761336 0 0))
(0.01493750 (152.429205 0 0))
(0.01495312 (94.097073 0 0))
(0.01496875 (44.645480 0 0))
(0.01498438 (11.602982 0 0))
(0.01500000 (0.000000 0 0))
(0.01501562 (11.602982 0 0))
(0.01503125 (44.645480 0 0))
(0.01504688 (94.097073 0 0))
(0.01506250 (152.429205 0 0))
(0.01507812 (210.761336 0 0))
(0.01509375 (260.212929 0 0))
(0.01510938 (293.255427 0 0))
(0.01512500 (304.858409 0 0))
(0.01514062 (293.255427 0 0))
(0.01515625 (260.212929 0 0))
(0.01517188 (210.761336 0 0))
(0.01518750 (152.429205 0 0))
(0.01520312 (94.097073 0 0))
(0.01521875 (44.645480 0 0))
(0.01523438 (11.602982 0 0))
(0.01525000 (0.000000 0 0))
(0.01526562 (11.602982 0 0))
(0.01528125 (44.645480 0 0))
(0.01529688 (94.097073 0 0))
(0.01531250 (152.429205 0 0))
(0.01532812 (210.761336 0 0))